calibration/workingDir/Calib_ID1_Config_ID3_2012-04-10.glm
clock {
	timezone PST+8PDT;
	starttime '2012-04-09 00:00:00';
	stoptime '2012-04-11 00:00:00';
};

#include "../schedules/appliance_schedules.glm"

#include "../schedules/water_and_setpoint_schedule_v5.glm"

#include "../schedules/commercial_schedules.glm"

#define stylesheet=http://gridlab-d.svn.sourceforge.net/viewvc/gridlab-d/trunk/core/gridlabd-2_0

#set minimum_timestep=300

#set profiler=1

#set relax_naming_rules=1

module tape {
};

module climate {
};

module residential {
	implicit_enduses NONE;
};

module powerflow {
	solver_method NR;
	NR_iteration_limit 50;
};

class player{
	double value;
};

object player {
// Will loop file for 40 years assuming the file has data for a 24 hour period
	name norm_feeder_loadshape;
	file C:\Users\dwp0\Dropbox\OMF\omf\calibration\workingDir../schedules/load_shape_player.player;
	property value;
	loop 14600;
};

object csv_reader {
	name CsvReader;
	filename "../schedules/SCADA_weather_NC_gld_shifted.csv";
};

object climate {
	reader CsvReader;
	name "../schedules/SCADA_weather_NC_gld_shifted";
	tmyfile "../schedules/SCADA_weather_NC_gld_shifted.csv";
};

object transformer_configuration {
	name trans_config_to_feeder;
	primary_voltage 14400;
	install_type PADMOUNT;
	impedance 0.00033+0.0022j;
	secondary_voltage 7200.0;
	connect_type WYE_WYE;
	power_rating 16.1 MVA;
};

object meter {
	phases ABCN;
	nominal_voltage 14400;
	name network_node;
	bustype SWING;
};

object player {
	property voltage_A;
	file "../schedules/VA.player";
	loop 10;
	parent network_node;
};

object player {
	property voltage_B;
	file "../schedules/VB.player";
	loop 10;
	parent network_node;
};

object player {
	property voltage_C;
	file "../schedules/VC.player";
	loop 10;
	parent network_node;
};

object transformer {
	phases ABCN;
	from network_node;
	name substation_transformer;
	to FRIENDSHIP;
	configuration trans_config_to_feeder;
	groupid Distribution_Trans;
};

object triplex_node {
	phases BS;
	name S1806-04-063_B;
	parent nodeS1806-04-0231806-04-003_B;
	longitude 310.455481731;
	nominal_voltage 120;
	latitude 619.381876104;
};

clock {
	timezone PST+8PDT;
	starttime '2012-04-09 00:00:00';
	stoptime '2012-04-11 00:00:00';
};

#set profiler=1;
#set relax_naming_rules=1;
object triplex_meter {
	phases CS;
	name nodeS1906-31-008T7003_C;
	longitude 179.197144445;
	nominal_voltage 120;
	latitude 387.281258128;
};

module tape;
module residential {
	implicit_enduses NONE;
};

#set minimum_timestep=60;
object node {
	phases A;
	name nodeF12241x1929718;
	longitude 67.8703814421;
	nominal_voltage 7200.0;
	latitude 809.330036882;
};

object node {
	phases CN;
	name node957895841526;
	longitude 383.450914744;
	nominal_voltage 7200.0;
	latitude 597.179102663;
};

object node {
	phases CN;
	name node839479839477;
	longitude 746.048068875;
	nominal_voltage 7200.0;
	latitude 642.216187736;
};

object triplex_node {
	phases AS;
	name S1906-20-101_A;
	parent nodeS1906-20-101T11936_A;
	longitude 66.3655897198;
	nominal_voltage 120;
	latitude 463.575914478;
};

module generators;
object fuse {
	phases C;
	from nodeF7878x1841504;
	name F7878x1;
	current_limit 9999.0 A;
	longitude 212.985770656;
	to node927211F7878x1;
	latitude 1166.51400316;
};

object transformer {
	phases CS;
	from nodeT29618975122;
	name T29618_C;
	to nodeS1906-34-021T29618_C;
	configuration 1806-03-036_C-CONFIG;
	groupid Distribution_Trans;
};

object triplex_meter {
	phases CS;
	name nodeS1906-34-018T4423_C;
	longitude 184.394274674;
	nominal_voltage 120;
	latitude 812.263930724;
};

module powerflow {
	solver_method NR;
	NR_iteration_limit 50;
};

object node {
	phases BN;
	name node841139F28133x1;
	longitude 316.999481845;
	nominal_voltage 7200.0;
	latitude 548.080898148;
};

object overhead_line {
	phases C;
	from node840429840428;
	name 840429;
	longitude 207.086771095;
	to nodeFFRN1-F185x1840429;
	length 48;
	latitude 372.698901633;
	configuration 840428-LINECONFIG;
	groupid Distribution_Line;
};

object underground_line {
	phases A;
	from node840497982343;
	name 982349;
	longitude 85.1369125912;
	to node982347982349;
	length 684;
	latitude 658.533619746;
	configuration 982349-LINECONFIG;
	groupid Distribution_Line;
};

object triplex_node {
	phases BS;
	name S1806-04-028_B;
	parent nodeS1806-04-028T10519_B;
	longitude 293.036861597;
	nominal_voltage 120;
	latitude 624.702815655;
};

object fuse {
	phases B;
	from nodeR2918x1839805;
	name R2918x1;
	current_limit 9999.0 A;
	longitude 322.834708438;
	to node839806R2918x1;
	latitude 551.825882544;
};

object triplex_meter {
	phases BS;
	name nodeS1806-27-005T7804_B;
	longitude 668.96020973;
	nominal_voltage 120;
	latitude 756.90630299;
};

object node {
	phases B;
	name nodeR6914x1979057;
	longitude 505.11379489;
	nominal_voltage 7200.0;
	latitude 598.565233251;
};

object transformer {
	phases CS;
	from node1906-31-013840430;
	name 1906-31-013_C;
	to nodeS1906-31-0031906-31-013_C;
	configuration T7879_C-CONFIG;
	groupid Distribution_Trans;
};

object node {
	phases A;
	name node913045913044;
	longitude 130.798357846;
	nominal_voltage 7200.0;
	latitude 27.7955660033;
};

object underground_line {
	phases B;
	from node841826904509;
	name 841826;
	longitude 587.205548248;
	to node841828841826;
	length 332;
	latitude 1095.45657196;
	configuration 841826-LINECONFIG;
	groupid Distribution_Line;
};

object transformer {
	phases BS;
	from nodeT6916839720;
	name T6916_B;
	to nodeS1806-16-010T6916_B;
	configuration 1806-10-002_B-CONFIG;
	groupid Distribution_Trans;
};

object overhead_line {
	phases BN;
	from node985054949217;
	name 985054;
	longitude 300.003985811;
	to node985055985054;
	length 115;
	latitude 552.166335671;
	configuration 985054-LINECONFIG;
	groupid Distribution_Line;
};

object triplex_node {
	phases AS;
	name S1906-22-028_A;
	parent nodeS1906-22-0281906-22-023_A;
	longitude 86.3465903065;
	nominal_voltage 120;
	latitude 840.738511767;
};

object meter {
	phases ABCN;
	name FRIENDSHIP;
	longitude 800.0;
	nominal_voltage 7200.0;
	latitude 603.623393993;
};

object regulator_configuration {
	Control OUTPUT_VOLTAGE;
	raise_taps 16.0;
	PT_phase ABC;
	name REG27-CONFIG;
	band_center 123.9996;
	current_transducer_ratio 328;
	tap_pos_B 1;
	tap_pos_C 1;
	time_delay 30.0;
	connect_type WYE_WYE;
	regulation 0.1;
	CT_phase ABC;
	power_transducer_ratio 60.0;
	band_width 2.000004;
	tap_pos_A 1;
	control_level INDIVIDUAL;
	Type A;
	lower_taps 16.0;
};

object triplex_meter {
	phases CS;
	name nodeS1806-02-007T15668_C;
	longitude 263.421604427;
	nominal_voltage 120;
	latitude 960.675115571;
};

object node {
	phases A;
	name node929720F12241x1;
	longitude 70.7082785284;
	nominal_voltage 7200.0;
	latitude 812.467069266;
};

object node {
	phases C;
	name nodeF7427x1957895;
	longitude 383.450914744;
	nominal_voltage 7200.0;
	latitude 597.179102663;
};

object triplex_node {
	phases BS;
	name S1806-27-012_B;
	parent nodeS1806-27-012T12908_B;
	longitude 667.678414316;
	nominal_voltage 120;
	latitude 763.883182951;
};

object node {
	phases CN;
	name node839481839479;
	longitude 746.223444537;
	nominal_voltage 7200.0;
	latitude 646.666396466;
};

object underground_line {
	phases C;
	from node840223840222;
	name 979439;
	longitude 150.934672566;
	to nodeT29638979439;
	length 52;
	latitude 421.432334941;
	configuration 970069-LINECONFIG;
	groupid Distribution_Line;
};

object underground_line {
	phases C;
	from node927211F7878x1;
	name 927211;
	longitude 209.781179003;
	to node841505927211;
	length 595;
	latitude 1180.13212824;
	configuration 970069-LINECONFIG;
	groupid Distribution_Line;
};

object transformer {
	phases CS;
	from nodeT28873975926;
	name T28873_C;
	to nodeS1906-32-002T28873_C;
	configuration 1805-0538_C-CONFIG;
	groupid Distribution_Trans;
};

object triplex_meter {
	phases CS;
	name nodeS1906-32-0181906-0077_C;
	longitude 189.529554403;
	nominal_voltage 120;
	latitude 567.016258783;
};

object node {
	phases B;
	name node1806-05-064841139;
	longitude 316.999481845;
	nominal_voltage 7200.0;
	latitude 548.080898148;
};

object node {
	phases A;
	name node962381962382;
	longitude 651.28143808;
	nominal_voltage 7200.0;
	latitude 500.198597657;
};

object fuse {
	phases C;
	from nodeFFRN1-F185x1840429;
	name FFRN1-F185x1;
	current_limit 9999.0 A;
	longitude 207.086771095;
	to node840430FFRN1-F185x1;
	latitude 372.698901633;
};

object triplex_node {
	phases CS;
	name S1906-27-010_C;
	parent nodeS1906-27-0101906-0098_C;
	longitude 176.165397234;
	nominal_voltage 120;
	latitude 785.492149423;
};

object underground_line {
	phases A;
	from node982347982349;
	name 982347;
	longitude 85.1050261071;
	to node951896982347;
	length 640;
	latitude 673.975600859;
	configuration 982349-LINECONFIG;
	groupid Distribution_Line;
};

object overhead_line {
	phases BN;
	from node839806R2918x1;
	name 839806;
	longitude 321.415759895;
	to node985379839806;
	length 180;
	latitude 555.692457342;
	configuration 985054-LINECONFIG;
	groupid Distribution_Line;
};

object triplex_meter {
	phases CS;
	name nodeS1806-03-0091806-03-007_C;
	longitude 297.894561511;
	nominal_voltage 120;
	latitude 727.363563898;
};

object transformer {
	phases CS;
	from node839516906381;
	name 1806-33-030_C;
	to nodeS1806-33-0441806-33-030_C;
	configuration 1805-0538_C-CONFIG;
	groupid Distribution_Trans;
};

object node {
	phases B;
	name node978971R6914x1;
	longitude 504.970305712;
	nominal_voltage 7200.0;
	latitude 598.224780124;
};

object node {
	phases A;
	name node913047913046;
	longitude 141.655705688;
	nominal_voltage 7200.0;
	latitude 36.3068941758;
};

object node {
	phases ABCN;
	name node985279985278;
	longitude 355.932878951;
	nominal_voltage 7200.0;
	latitude 544.554776476;
};

object underground_line {
	phases B;
	from node841828841826;
	name 841828;
	longitude 586.456215871;
	to node841829841828;
	length 437;
	latitude 1103.94358205;
	configuration 841826-LINECONFIG;
	groupid Distribution_Line;
};

object transformer {
	phases BS;
	from node841303841299;
	name 1806-05-108_B;
	to nodeS1806-05-0531806-05-108_B;
	configuration 1806-10-002_B-CONFIG;
	groupid Distribution_Trans;
};

object overhead_line {
	phases BN;
	from node985055985054;
	name 985055;
	longitude 300.019929053;
	to node985056985055;
	length 50;
	latitude 550.901795485;
	configuration 985054-LINECONFIG;
	groupid Distribution_Line;
};

object triplex_node {
	phases AS;
	name S1806-20-001_A;
	parent nodeS1806-20-001T28806_A;
	longitude 575.075141348;
	nominal_voltage 120;
	latitude 507.262689438;
};

object regulator {
	phases ACB;
	from FRIENDSHIP;
	name REG27;
	longitude 794.827590509;
	to node958175REG27;
	latitude 533.055734649;
	configuration REG27-CONFIG;
};

object triplex_meter {
	phases AS;
	name nodeS1806-20-056T19018_A;
	longitude 515.513914379;
	nominal_voltage 120;
	latitude 467.877486296;
};

object node {
	phases A;
	name nodeT12242929720;
	longitude 70.7082785284;
	nominal_voltage 7200.0;
	latitude 812.467069266;
};

object triplex_node {
	phases CS;
	name S1806-32-140_C;
	parent nodeS1806-32-1401806-33-094_C;
	longitude 736.7160424;
	nominal_voltage 120;
	latitude 596.45181643;
};

object node {
	phases C;
	name node841528F7427x1;
	longitude 386.591733429;
	nominal_voltage 7200.0;
	latitude 595.963198638;
};

object node {
	phases CN;
	name node839483839481;
	longitude 746.366933716;
	nominal_voltage 7200.0;
	latitude 649.049568354;
};

object transformer {
	phases CS;
	from node985231985230;
	name 1906-29-031_C;
	to nodeS1906-29-0031906-29-031_C;
	configuration 1805-0538_C-CONFIG;
	groupid Distribution_Trans;
};

object underground_line {
	phases C;
	from node841505927211;
	name 841505;
	longitude 206.209892782;
	to nodeT7879841505;
	length 231;
	latitude 1178.77031573;
	configuration 970069-LINECONFIG;
	groupid Distribution_Line;
};

object underground_line {
	phases B;
	from node924936837409;
	name 924937;
	longitude 678.337119853;
	to nodeT14008924937;
	length 250;
	latitude 919.077534147;
	configuration 929369-LINECONFIG;
	groupid Distribution_Line;
};

object triplex_node {
	phases AS;
	name S1806-05-036_A;
	parent nodeS1806-05-0351806-05-134_A;
	longitude 283.682320575;
	nominal_voltage 120;
	latitude 576.623184027;
};

object triplex_meter {
	phases AS;
	name nodeS1906-22-0751906-22-049_A;
	longitude 23.279324994;
	nominal_voltage 120;
	latitude 836.875522934;
};

object node {
	phases A;
	name node962401962381;
	longitude 652.74821635;
	nominal_voltage 7200.0;
	latitude 488.355692457;
};

object triplex_node {
	phases BS;
	name S1806-16-013_B;
	parent nodeS1806-16-013T12137_B;
	longitude 485.358061541;
	nominal_voltage 120;
	latitude 698.876522418;
};

object overhead_line {
	phases C;
	from node840430FFRN1-F185x1;
	name 840430;
	longitude 207.086771095;
	to node1906-31-013840430;
	length 233;
	latitude 378.365014388;
	configuration 840428-LINECONFIG;
	groupid Distribution_Line;
};

object underground_line {
	phases A;
	from node951896982347;
	name 951896;
	longitude 88.7081988122;
	to node951899951896;
	length 225;
	latitude 676.042637701;
	configuration 982349-LINECONFIG;
	groupid Distribution_Line;
};

object overhead_line {
	phases BN;
	from node985379839806;
	name 985379;
	longitude 320.60265455;
	to node839814985379;
	length 120;
	latitude 558.318810035;
	configuration 985054-LINECONFIG;
	groupid Distribution_Line;
};

object underground_line {
	phases A;
	from node841637917252;
	name 917255;
	longitude 507.377735262;
	to node917256917255;
	length 434;
	latitude 509.099015118;
	configuration 982349-LINECONFIG;
	groupid Distribution_Line;
};

object transformer {
	phases CS;
	from nodeT2557899222;
	name T2557_C;
	to nodeS1906-33-013T2557_C;
	configuration 1806-03-036_C-CONFIG;
	groupid Distribution_Trans;
};

object triplex_meter {
	phases CS;
	name nodeS1905-36-0031905-36-008_C;
	longitude 202.321683985;
	nominal_voltage 120;
	latitude 216.418256944;
};

object node {
	phases B;
	name node921593978971;
	longitude 505.592092152;
	nominal_voltage 7200.0;
	latitude 634.726218944;
};

object node {
	phases A;
	name node913048913047;
	longitude 139.997608514;
	nominal_voltage 7200.0;
	latitude 33.5103149191;
};

object node {
	phases ABCN;
	name node985184985279;
	longitude 353.477619674;
	nominal_voltage 7200.0;
	latitude 545.162728489;
};

object underground_line {
	phases B;
	from node841829841828;
	name 841829;
	longitude 586.121407788;
	to node948924841829;
	length 1895;
	latitude 1118.41283995;
	configuration 841826-LINECONFIG;
	groupid Distribution_Line;
};

object triplex_node {
	phases CS;
	name S1906-32-002_C;
	parent nodeS1906-32-002T28873_C;
	longitude 236.26002015;
	nominal_voltage 120;
	latitude 547.433658469;
};

object overhead_line {
	phases BN;
	from node985056985055;
	name 985056;
	longitude 300.370680378;
	to node985057985056;
	length 170;
	latitude 546.937948365;
	configuration 985054-LINECONFIG;
	groupid Distribution_Line;
};

object underground_line {
	phases ACB;
	from node958175REG27;
	name 958175;
	longitude 799.410100044;
	to nodeRFRN1-R0001x1958175;
	length 24;
	latitude 603.526121671;
	configuration 978204-LINECONFIG;
	groupid Distribution_Line;
};

object triplex_meter {
	phases CS;
	name nodeS1806-05-1941806-0243_C;
	longitude 342.175056675;
	nominal_voltage 120;
	latitude 575.238947401;
};

object transformer {
	phases AS;
	from node1905-0156841025;
	name 1905-0156_A;
	to nodeS1905-26-0371905-0156_A;
	configuration T19018_A-CONFIG;
	groupid Distribution_Trans;
};

object node {
	phases C;
	name node841529841528;
	longitude 384.391566025;
	nominal_voltage 7200.0;
	latitude 594.990475418;
};

object node {
	phases CN;
	name node839484839483;
	longitude 746.382876958;
	nominal_voltage 7200.0;
	latitude 649.244112998;
};

object transformer {
	phases CS;
	from nodeT28511965265;
	name T28511_C;
	to nodeS1806-17-047T28511_C;
	configuration T28511_C-CONFIG;
	groupid Distribution_Trans;
};

object transformer_configuration {
	powerC_rating 25;
	name T28511_C-CONFIG;
	primary_voltage 7200.0;
	secondary_voltage 120.0;
	connect_type SINGLE_PHASE_CENTER_TAPPED;
	impedance 0.00399920023992+0.0195960811756j;
	power_rating 25;
};

object triplex_node {
	phases BS;
	name S1806-14-009_B;
	parent nodeS1806-14-0091806-0074_B;
	longitude 430.024098643;
	nominal_voltage 120;
	latitude 963.080964234;
};

object triplex_node {
	phases BS;
	name S1806-15-003_B;
	parent nodeS1806-15-003T5057_B;
	longitude 494.244835162;
	nominal_voltage 120;
	latitude 847.608685509;
};

object triplex_meter {
	phases BS;
	name nodeS1806-27-0091806-27-012_B;
	longitude 587.273434872;
	nominal_voltage 120;
	latitude 797.71533425;
};

object node {
	phases ABCN;
	name node985186985296;
	longitude 306.381282634;
	nominal_voltage 7200.0;
	latitude 554.817006444;
};

object triplex_node {
	phases BS;
	name S1806-05-067_B;
	parent nodeS1806-05-0671806-05-014_B;
	longitude 319.218692857;
	nominal_voltage 120;
	latitude 582.079439822;
};

object node {
	phases A;
	name node839583962401;
	longitude 641.300968552;
	nominal_voltage 7200.0;
	latitude 488.01523933;
};

object underground_line {
	phases A;
	from node951899951896;
	name 951899;
	longitude 93.0607038941;
	to node951900951899;
	length 300;
	latitude 674.072873181;
	configuration 982349-LINECONFIG;
	groupid Distribution_Line;
};

object overhead_line {
	phases BN;
	from node839814985379;
	name 839814;
	longitude 319.454741122;
	to node974508839814;
	length 80;
	latitude 560.094029911;
	configuration 985054-LINECONFIG;
	groupid Distribution_Line;
};

object transformer {
	phases AS;
	from node917184840933;
	name 1905-24-058_A;
	to nodeS1905-24-0201905-24-058_A;
	configuration 1905-23-004_A-CONFIG;
	groupid Distribution_Trans;
};

object underground_line {
	phases A;
	from node917256917255;
	name 917256;
	longitude 506.181992108;
	to nodeF6857x1917256;
	length 148;
	latitude 509.877193694;
	configuration 982349-LINECONFIG;
	groupid Distribution_Line;
};

object triplex_meter {
	phases BS;
	name nodeS1806-16-010T6916_B;
	longitude 499.67083301;
	nominal_voltage 120;
	latitude 702.534750575;
};

object node {
	phases B;
	name node921816921593;
	longitude 505.512375942;
	nominal_voltage 7200.0;
	latitude 667.725854173;
};

object node {
	phases A;
	name node928552913048;
	longitude 143.058710989;
	nominal_voltage 7200.0;
	latitude 26.5553438982;
};

object node {
	phases ABCN;
	name node839771985184;
	longitude 353.700825063;
	nominal_voltage 7200.0;
	latitude 544.72500304;
};

object underground_line {
	phases B;
	from node948924841829;
	name 948924;
	longitude 573.287097931;
	to node1807-19-001948924;
	length 1750.41;
	latitude 1145.79499858;
	configuration 929369-LINECONFIG;
	groupid Distribution_Line;
};

object triplex_node {
	phases CS;
	name S1806-05-001_C;
	parent nodeS1806-05-0011806-05-359_C;
	longitude 341.422942159;
	nominal_voltage 120;
	latitude 559.725302727;
};

object overhead_line {
	phases BN;
	from node985057985056;
	name 985057;
	longitude 300.609829009;
	to node985058985057;
	length 140;
	latitude 543.460462854;
	configuration 985054-LINECONFIG;
	groupid Distribution_Line;
};

object triplex_node {
	phases CS;
	name S1906-20-093_C;
	parent nodeS1906-20-069T4270_C;
	longitude 54.4094392678;
	nominal_voltage 120;
	latitude 534.38653117;
};

object fuse {
	phases ACB;
	from nodeRFRN1-R0001x1958175;
	name RFRN1-R0001x1;
	current_limit 9999.0 A;
	longitude 799.410100044;
	to node958178RFRN1-R0001x1;
	latitude 603.526121671;
};

object transformer {
	phases CS;
	from node1806-0284928018;
	name 1806-0284_C;
	to nodeS1906-34-0141806-0284_C;
	configuration 1806-03-036_C-CONFIG;
	groupid Distribution_Trans;
};

object triplex_meter {
	phases AS;
	name nodeS1905-26-0371905-0156_A;
	longitude 99.934671353;
	nominal_voltage 120;
	latitude 116.191370002;
};

object node {
	phases C;
	name node1806-0039841529;
	longitude 384.391566025;
	nominal_voltage 7200.0;
	latitude 594.990475418;
};

object node {
	phases CN;
	name node839486839484;
	longitude 746.94089043;
	nominal_voltage 7200.0;
	latitude 654.594090706;
};

object triplex_node {
	phases CS;
	name S1806-05-003_C;
	parent nodeS1806-05-003T28501_C;
	longitude 315.651214098;
	nominal_voltage 120;
	latitude 539.901205811;
};

object underground_line {
	phases B;
	from node837409928735;
	name 928736;
	longitude 684.060743752;
	to node928741928736;
	length 350;
	latitude 909.690755076;
	configuration 929369-LINECONFIG;
	groupid Distribution_Line;
};

object triplex_meter {
	phases AS;
	name nodeS1905-24-0751905-24-011_A;
	longitude 85.0020449316;
	nominal_voltage 120;
	latitude 229.575618911;
};

object triplex_node {
	phases CS;
	name S1906-30-054_C;
	parent nodeS1906-30-0241906-0174_C;
	longitude 142.030008054;
	nominal_voltage 120;
	latitude 422.362467343;
};

object node {
	phases ABCN;
	name node985187985186;
	longitude 302.220096457;
	nominal_voltage 7200.0;
	latitude 555.546548859;
};

object node {
	phases A;
	name node1806-0229839583;
	longitude 641.300968552;
	nominal_voltage 7200.0;
	latitude 488.01523933;
};

object underground_line {
	phases A;
	from node951900951899;
	name 951900;
	longitude 96.0102036749;
	to node840525951900;
	length 260;
	latitude 674.145827423;
	configuration 982349-LINECONFIG;
	groupid Distribution_Line;
};

object transformer {
	phases CS;
	from node841422897778;
	name 1806-03-017_C;
	to nodeS1806-03-0181806-03-017_C;
	configuration 1806-03-036_C-CONFIG;
	groupid Distribution_Trans;
};

object overhead_line {
	phases BN;
	from node974508839814;
	name 974508;
	longitude 318.641635777;
	to node839816974508;
	length 92;
	latitude 561.942204029;
	configuration 985054-LINECONFIG;
	groupid Distribution_Line;
};

object fuse {
	phases A;
	from nodeF6857x1917256;
	name F6857x1;
	current_limit 9999.0 A;
	longitude 506.181992108;
	to node841596F6857x1;
	latitude 509.877193694;
};

object triplex_node {
	phases AS;
	name S1905-26-038_A;
	parent nodeS1905-26-038T15477_A;
	longitude 102.321621858;
	nominal_voltage 120;
	latitude 85.9889537307;
};

object triplex_meter {
	phases BS;
	name nodeS1806-29-0101806-29-099_B;
	longitude 599.885331734;
	nominal_voltage 120;
	latitude 608.738612696;
};

object node {
	phases B;
	name node839719921816;
	longitude 505.257284069;
	nominal_voltage 7200.0;
	latitude 693.357111012;
};

object node {
	phases A;
	name nodeT14038928552;
	longitude 143.058710989;
	nominal_voltage 7200.0;
	latitude 26.5553438982;
};

object node {
	phases A;
	name nodeF28127x1839771;
	longitude 353.700825063;
	nominal_voltage 7200.0;
	latitude 544.72500304;
};

object triplex_node {
	phases CS;
	name S1806-03-005_C;
	parent nodeS1806-03-0051806-03-015_C;
	longitude 287.755861146;
	nominal_voltage 120;
	latitude 747.905633922;
};

object underground_line {
	phases A;
	from node840736840735;
	name 959461;
	longitude 36.5100243134;
	to node959481959461;
	length 550;
	latitude 722.465853362;
	configuration 982349-LINECONFIG;
	groupid Distribution_Line;
};

object overhead_line {
	phases B;
	from node985058985057;
	name 985058;
	longitude 300.817091155;
	to node1806-05-353985058;
	length 170;
	latitude 539.423661492;
	configuration 985054-LINECONFIG;
	groupid Distribution_Line;
};

object transformer {
	phases AS;
	from node840950840948;
	name 1905-24-011_A;
	to nodeS1905-24-0751905-24-011_A;
	configuration 1905-23-004_A-CONFIG;
	groupid Distribution_Trans;
};

object underground_line {
	phases ACB;
	from node958178RFRN1-R0001x1;
	name 958178;
	longitude 790.577543944;
	to node958179958178;
	length 780;
	latitude 608.195193126;
	configuration 978204-LINECONFIG;
	groupid Distribution_Line;
};

object triplex_meter {
	phases BS;
	name nodeS1806-26-004T15660_B;
	longitude 670.962992191;
	nominal_voltage 120;
	latitude 885.345951535;
};

object node {
	phases CN;
	name node839488839486;
	longitude 748.407668699;
	nominal_voltage 7200.0;
	latitude 659.554979127;
};

object triplex_node {
	phases CS;
	name S1906-27-016_C;
	parent nodeS1906-27-016T9528_C;
	longitude 156.512663682;
	nominal_voltage 120;
	latitude 828.785851793;
};

object underground_line {
	phases B;
	from node928741928736;
	name 928741;
	longitude 692.861413368;
	to node928742928741;
	length 770;
	latitude 918.080492846;
	configuration 929369-LINECONFIG;
	groupid Distribution_Line;
};

object triplex_meter {
	phases BS;
	name nodeS1906-33-007T10526_B;
	longitude 246.307785661;
	nominal_voltage 120;
	latitude 660.725756013;
};

object transformer {
	phases CS;
	from node840252840250;
	name 1906-30-025_C;
	to nodeS1906-30-0021906-30-025_C;
	configuration 1806-03-036_C-CONFIG;
	groupid Distribution_Trans;
};

object node {
	phases ABCN;
	name node985188985187;
	longitude 299.366256128;
	nominal_voltage 7200.0;
	latitude 555.887001986;
};

object overhead_line {
	phases CN;
	from node840429840428;
	name 840432;
	longitude 214.197457053;
	to node840433840432;
	length 446;
	latitude 371.872086897;
	configuration 840428-LINECONFIG;
	groupid Distribution_Line;
};

object transformer {
	phases CS;
	from node1806-02-004841461;
	name 1806-02-004_C;
	to nodeS1806-02-0031806-02-004_C;
	configuration 1806-09-007_C-CONFIG;
	groupid Distribution_Trans;
};

object underground_line {
	phases A;
	from node840525951900;
	name 840525;
	longitude 96.0899198852;
	to nodeT16166840525;
	length 274;
	latitude 667.482673368;
	configuration 840498-LINECONFIG;
	groupid Distribution_Line;
};

object overhead_line {
	phases BN;
	from node839816974508;
	name 839816;
	longitude 317.461835864;
	to node922079839816;
	length 133;
	latitude 564.690147124;
	configuration 985054-LINECONFIG;
	groupid Distribution_Line;
};

object triplex_node {
	phases CS;
	name S1906-32-044_C;
	parent nodeS1906-32-0251906-0069_C;
	longitude 217.371702079;
	nominal_voltage 120;
	latitude 565.727369346;
};

object overhead_line {
	phases A;
	from node841596F6857x1;
	name 841596;
	longitude 503.439754474;
	to node841597841596;
	length 211;
	latitude 510.023102176;
	configuration 841596-LINECONFIG;
	groupid Distribution_Line;
};

object triplex_meter {
	phases BS;
	name nodeS1806-27-012T12908_B;
	longitude 671.665987128;
	nominal_voltage 120;
	latitude 760.254534565;
};

object node {
	phases B;
	name node839720839719;
	longitude 498.577065646;
	nominal_voltage 7200.0;
	latitude 696.299598752;
};

object triplex_node {
	phases AS;
	name S1905-24-014_A;
	parent nodeS1905-24-0141905-24-018_A;
	longitude 69.824665292;
	nominal_voltage 120;
	latitude 208.921671522;
};

object node {
	phases AN;
	name node839772F28127x1;
	longitude 355.008170912;
	nominal_voltage 7200.0;
	latitude 538.84002756;
};

object overhead_line {
	phases B;
	from node841826904509;
	name 904510;
	longitude 586.153294272;
	to node1806-24-016904510;
	length 349;
	latitude 1095.82134317;
	configuration 904509-LINECONFIG;
	groupid Distribution_Line;
};

object underground_line {
	phases A;
	from node959481959461;
	name 959481;
	longitude 36.5897405237;
	to nodeT16332959481;
	length 60;
	latitude 725.165160297;
	configuration 982349-LINECONFIG;
	groupid Distribution_Line;
};

object transformer {
	phases BS;
	from nodeT4041911831;
	name T4041_B;
	to nodeS1806-16-012T4041_B;
	configuration 1806-33-057_B-CONFIG;
	groupid Distribution_Trans;
};

object underground_line {
	phases ACB;
	from node958179958178;
	name 958179;
	longitude 780.134720395;
	to node978195958179;
	length 860;
	latitude 602.650670774;
	configuration 978204-LINECONFIG;
	groupid Distribution_Line;
};

object triplex_node {
	phases AS;
	name S1806-17-017_A;
	parent nodeS1806-17-017T10632_A;
	longitude 466.308247768;
	nominal_voltage 120;
	latitude 477.458603501;
};

object triplex_meter {
	phases BS;
	name nodeS1806-04-0311806-0121_B;
	longitude 307.777603761;
	nominal_voltage 120;
	latitude 629.794670954;
};

object node {
	phases A;
	name nodeFFRN1-F128x1840704;
	longitude 72.222886524;
	nominal_voltage 7200.0;
	latitude 795.614639484;
};

object node {
	phases C;
	name node1806-0220841531;
	longitude 384.104587668;
	nominal_voltage 7200.0;
	latitude 608.803145138;
};

object node {
	phases CN;
	name node839490839488;
	longitude 748.009087648;
	nominal_voltage 7200.0;
	latitude 663.859279374;
};

object triplex_node {
	phases CS;
	name S1806-21-026_C;
	parent nodeS1806-21-026T28682_C;
	longitude 522.569740142;
	nominal_voltage 120;
	latitude 624.13545694;
};

object underground_line {
	phases B;
	from node928742928741;
	name 928742;
	longitude 699.717007453;
	to node928748928742;
	length 578;
	latitude 924.865237304;
	configuration 929369-LINECONFIG;
	groupid Distribution_Line;
};

object transformer {
	phases CS;
	from node840137840132;
	name T25156_C;
	to nodeS1906-32-021T25156_C;
	configuration T7879_C-CONFIG;
	groupid Distribution_Trans;
};

object triplex_meter {
	phases AS;
	name nodeS1906-22-1631906-22-057_A;
	longitude 63.3279454414;
	nominal_voltage 120;
	latitude 733.992944792;
};

object node {
	phases ABCN;
	name node840024985188;
	longitude 299.637291243;
	nominal_voltage 7200.0;
	latitude 554.938596847;
};

object node {
	phases A;
	name nodeT16942962383;
	longitude 640.232771334;
	nominal_voltage 7200.0;
	latitude 506.351072022;
};

object overhead_line {
	phases CN;
	from node840433840432;
	name 840433;
	longitude 220.415321456;
	to node840434840433;
	length 477;
	latitude 378.559559032;
	configuration 840428-LINECONFIG;
	groupid Distribution_Line;
};

object triplex_node {
	phases BS;
	name S1806-04-044_B;
	parent nodeS1806-04-028T10519_B;
	longitude 288.839218516;
	nominal_voltage 120;
	latitude 625.397241099;
};

object overhead_line {
	phases BN;
	from node922079839816;
	name 922079;
	longitude 316.505241341;
	to node839818922079;
	length 116;
	latitude 567.121955174;
	configuration 985054-LINECONFIG;
	groupid Distribution_Line;
};

object underground_line {
	phases A;
	from node841597841596;
	name 841597;
	longitude 504.252859819;
	to nodeT6858841597;
	length 287;
	latitude 517.245572083;
	configuration 982349-LINECONFIG;
	groupid Distribution_Line;
};

object triplex_meter {
	phases CS;
	name nodeS1806-07-0071806-0203_C;
	longitude 348.427736834;
	nominal_voltage 120;
	latitude 385.707835722;
};

object node {
	phases B;
	name nodeT6916839720;
	longitude 498.577065646;
	nominal_voltage 7200.0;
	latitude 696.299598752;
};

object transformer {
	phases BS;
	from node841282841281;
	name 1806-05-096_B;
	to nodeS1806-08-0241806-05-096_B;
	configuration 1806-33-057_B-CONFIG;
	groupid Distribution_Trans;
};

object node {
	phases A;
	name nodeT4239917949;
	longitude 146.103870222;
	nominal_voltage 7200.0;
	latitude 40.5868763426;
};

object node {
	phases AN;
	name node839773839772;
	longitude 353.302244011;
	nominal_voltage 7200.0;
	latitude 527.896891339;
};

object transformer {
	phases BS;
	from node979031979030;
	name 1806-29-099_B;
	to nodeS1806-29-0101806-29-099_B;
	configuration 1806-33-057_B-CONFIG;
	groupid Distribution_Trans;
};

object triplex_node {
	phases AS;
	name S1806-20-063_A;
	parent nodeS1806-20-063T6821_A;
	longitude 534.005246394;
	nominal_voltage 120;
	latitude 508.93993526;
};

object underground_line {
	phases ACB;
	from node978195958179;
	name 978195;
	longitude 749.890390211;
	to node978172978195;
	length 1970;
	latitude 602.285899566;
	configuration 978204-LINECONFIG;
	groupid Distribution_Line;
};

object triplex_meter {
	phases CS;
	name nodeS1806-02-006T4044_C;
	longitude 265.55639488;
	nominal_voltage 120;
	latitude 956.935434518;
};

object node {
	phases A;
	name node840705FFRN1-F128x1;
	longitude 68.0457571047;
	nominal_voltage 7200.0;
	latitude 793.40169416;
};

object triplex_node {
	phases CS;
	name S1806-07-007_C;
	parent nodeS1806-07-0071806-0203_C;
	longitude 348.931873064;
	nominal_voltage 120;
	latitude 380.74752116;
};

object node {
	phases CN;
	name node839491839490;
	longitude 747.451074176;
	nominal_voltage 7200.0;
	latitude 667.020629838;
};

object overhead_line {
	phases CN;
	from node841499841498;
	name 841507;
	longitude 255.570170194;
	to node841509841507;
	length 275;
	latitude 1171.91261703;
	configuration 840428-LINECONFIG;
	groupid Distribution_Line;
};

object transformer {
	phases AS;
	from node840636840635;
	name 1906-22-038_A;
	to nodeS1906-22-1201906-22-038_A;
	configuration 1905-23-004_A-CONFIG;
	groupid Distribution_Trans;
};

object underground_line {
	phases B;
	from node928748928742;
	name 928748;
	longitude 706.779863685;
	to node928749928748;
	length 556;
	latitude 931.09066591;
	configuration 929369-LINECONFIG;
	groupid Distribution_Line;
};

object triplex_meter {
	phases CS;
	name nodeS1805-02-0081805-02-006_C;
	longitude 250.338267257;
	nominal_voltage 120;
	latitude 142.58739667;
};

object node {
	phases BN;
	name node902242840024;
	longitude 298.983618319;
	nominal_voltage 7200.0;
	latitude 551.14497629;
};

object overhead_line {
	phases C;
	from node840434840433;
	name 840434;
	longitude 227.669496592;
	to nodeFFRN1-F073x1840434;
	length 455;
	latitude 378.389332469;
	configuration 840428-LINECONFIG;
	groupid Distribution_Line;
};

object triplex_node {
	phases CS;
	name S1906-34-013_C;
	parent nodeS1906-27-0101906-0098_C;
	longitude 180.132728305;
	nominal_voltage 120;
	latitude 782.292068654;
};

object overhead_line {
	phases BN;
	from node839818922079;
	name 839818;
	longitude 315.26166846;
	to node839828839818;
	length 142;
	latitude 569.602399384;
	configuration 985054-LINECONFIG;
	groupid Distribution_Line;
};

object triplex_meter {
	phases BS;
	name nodeS1806-17-032T6844_B;
	longitude 484.029714794;
	nominal_voltage 120;
	latitude 544.259657037;
};

object transformer {
	phases CS;
	from node979756979755;
	name 1806-04-066_C;
	to nodeS1806-04-0481806-04-066_C;
	configuration 1806-03-036_C-CONFIG;
	groupid Distribution_Trans;
};

object node {
	phases AN;
	name node839777839773;
	longitude 353.397903464;
	nominal_voltage 7200.0;
	latitude 527.313257407;
};

object transformer {
	phases CS;
	from node840256840254;
	name 1906-30-028_C;
	to nodeS1906-30-0441906-30-028_C;
	configuration 1806-03-036_C-CONFIG;
	groupid Distribution_Trans;
};

object triplex_node {
	phases CS;
	name S1906-32-040_C;
	parent nodeS1906-32-0401906-0072_C;
	longitude 203.964778025;
	nominal_voltage 120;
	latitude 594.025737362;
};

object underground_line {
	phases ACB;
	from node978172978195;
	name 978172;
	longitude 737.805412731;
	to node978174978172;
	length 780;
	latitude 602.431808049;
	configuration 978204-LINECONFIG;
	groupid Distribution_Line;
};

object triplex_meter {
	phases CS;
	name nodeS1906-31-0111906-31-019_C;
	longitude 219.226146457;
	nominal_voltage 120;
	latitude 396.245108738;
};

object node {
	phases A;
	name node1906-0324840705;
	longitude 68.0457571047;
	nominal_voltage 7200.0;
	latitude 793.40169416;
};

object triplex_node {
	phases CS;
	name S1806-33-070_C;
	parent nodeS1806-32-1401806-33-094_C;
	longitude 731.635274791;
	nominal_voltage 120;
	latitude 603.474997423;
};

object node {
	phases C;
	name node841534841533;
	longitude 400.318864841;
	nominal_voltage 7200.0;
	latitude 601.094313622;
};

object node {
	phases CN;
	name node974130839491;
	longitude 746.956833672;
	nominal_voltage 7200.0;
	latitude 669.841527175;
};

object transformer {
	phases CS;
	from nodeT12265931716;
	name T12265_C;
	to nodeS1905-35-010T12265_C;
	configuration 1805-0538_C-CONFIG;
	groupid Distribution_Trans;
};

object overhead_line {
	phases CN;
	from node841509841507;
	name 841509;
	longitude 252.971421739;
	to node841510841509;
	length 215;
	latitude 1175.3171483;
	configuration 840428-LINECONFIG;
	groupid Distribution_Line;
};

object underground_line {
	phases B;
	from node928749928748;
	name 928749;
	longitude 703.511499063;
	to nodeT15654928749;
	length 336;
	latitude 935.784055445;
	configuration 929369-LINECONFIG;
	groupid Distribution_Line;
};

object triplex_node {
	phases AS;
	name S1806-05-042_A;
	parent nodeS1806-05-0351806-05-134_A;
	longitude 285.47295216;
	nominal_voltage 120;
	latitude 576.220891838;
};

object triplex_meter {
	phases AS;
	name nodeS1806-29-0111806-20-169_A;
	longitude 591.617033593;
	nominal_voltage 120;
	latitude 495.297955023;
};

object node {
	phases CN;
	name node840315840313;
	longitude 169.604209016;
	nominal_voltage 7200.0;
	latitude 215.774328213;
};

object node {
	phases BN;
	name node902243902242;
	longitude 298.058910279;
	nominal_voltage 7200.0;
	latitude 549.710209541;
};

object node {
	phases A;
	name nodeT28801976769;
	longitude 592.705966758;
	nominal_voltage 7200.0;
	latitude 580.813034491;
};

object triplex_node {
	phases BS;
	name S1806-33-014_B;
	parent nodeS1806-33-0141806-33-052_B;
	longitude 706.643618892;
	nominal_voltage 120;
	latitude 729.256470936;
};

object fuse {
	phases C;
	from nodeFFRN1-F073x1840434;
	name FFRN1-F073x1;
	current_limit 9999.0 A;
	longitude 227.669496592;
	to node840435FFRN1-F073x1;
	latitude 378.389332469;
};

object underground_line {
	phases A;
	from node840525951900;
	name 951901;
	longitude 99.1829088445;
	to node951902951901;
	length 250;
	latitude 674.364690147;
	configuration 982349-LINECONFIG;
	groupid Distribution_Line;
};

object overhead_line {
	phases BN;
	from node839828839818;
	name 839828;
	longitude 312.631033521;
	to node839832839828;
	length 297;
	latitude 575.487374863;
	configuration 985054-LINECONFIG;
	groupid Distribution_Line;
};

object transformer {
	phases AS;
	from node976773976750;
	name T28806_A;
	to nodeS1806-20-001T28806_A;
	configuration 1906-22-098_A-CONFIG;
	groupid Distribution_Trans;
};

object triplex_meter {
	phases AS;
	name nodeS1906-22-0301906-22-010_A;
	longitude 85.1339535295;
	nominal_voltage 120;
	latitude 779.170196297;
};

object node {
	phases B;
	name node917612917611;
	longitude 504.635497628;
	nominal_voltage 7200.0;
	latitude 731.536497386;
};

object node {
	phases A;
	name nodeT11896925100;
	longitude 144.445773048;
	nominal_voltage 7200.0;
	latitude 34.5073562194;
};

object node {
	phases A;
	name node839778839777;
	longitude 349.364263223;
	nominal_voltage 7200.0;
	latitude 526.99712236;
};

object underground_line {
	phases A;
	from node959481959461;
	name 959482;
	longitude 32.9706245765;
	to node959483959482;
	length 220;
	latitude 722.611761845;
	configuration 982349-LINECONFIG;
	groupid Distribution_Line;
};

object triplex_node {
	phases AS;
	name S1906-22-120_A;
	parent nodeS1906-22-1201906-22-038_A;
	longitude 44.5954117362;
	nominal_voltage 120;
	latitude 825.185713064;
};

object underground_line {
	phases C;
	from node841277985284;
	name 841312;
	longitude 338.26776675;
	to nodeR2914x1841312;
	length 10;
	latitude 548.907712885;
	configuration 970069-LINECONFIG;
	groupid Distribution_Line;
};

object underground_line {
	phases B;
	from node978174978172;
	name 978174;
	longitude 737.885128941;
	to nodeF28653x1978174;
	length 30;
	latitude 602.796579257;
	configuration 929369-LINECONFIG;
	groupid Distribution_Line;
};

object triplex_meter {
	phases AS;
	name nodeS1906-21-008T16171_A;
	longitude 80.3615916316;
	nominal_voltage 120;
	latitude 675.573249378;
};

object transformer {
	phases BS;
	from node928730928725;
	name T15660_B;
	to nodeS1806-26-004T15660_B;
	configuration 1806-33-057_B-CONFIG;
	groupid Distribution_Trans;
};

object node {
	phases C;
	name node909244841534;
	longitude 399.011518992;
	nominal_voltage 7200.0;
	latitude 580.107810157;
};

object node {
	phases CN;
	name node839493974130;
	longitude 745.872693212;
	nominal_voltage 7200.0;
	latitude 675.99400154;
};

object transformer {
	phases BS;
	from nodeT28511965265;
	name T28511_B;
	to nodeS1806-17-047T28511_B;
	configuration T28511_B-CONFIG;
	groupid Distribution_Trans;
};

object overhead_line {
	phases CN;
	from node841510841509;
	name 841510;
	longitude 250.755311093;
	to node841511841510;
	length 186;
	latitude 1178.33259028;
	configuration 840428-LINECONFIG;
	groupid Distribution_Line;
};

object triplex_node {
	phases AS;
	name S1806-20-065_A;
	parent nodeS1806-20-065T4205_A;
	longitude 576.826915374;
	nominal_voltage 120;
	latitude 540.243860683;
};

object triplex_meter {
	phases CS;
	name nodeS1906-32-0451906-0226_C;
	longitude 205.766301585;
	nominal_voltage 120;
	latitude 568.058396826;
};

object node {
	phases C;
	name nodeNO245x1-Bx1840315;
	longitude 169.604209016;
	nominal_voltage 7200.0;
	latitude 215.774328213;
};

object node {
	phases B;
	name nodeR2919x1949216;
	longitude 299.796723664;
	nominal_voltage 7200.0;
	latitude 554.744052203;
};

object triplex_node {
	phases BS;
	name S1806-05-085_B;
	parent nodeS1806-05-0671806-05-014_B;
	longitude 321.0529481;
	nominal_voltage 120;
	latitude 577.147334186;
};

object overhead_line {
	phases CN;
	from node840435FFRN1-F073x1;
	name 840435;
	longitude 232.978596198;
	to node840437840435;
	length 333;
	latitude 378.243423986;
	configuration 840428-LINECONFIG;
	groupid Distribution_Line;
};

object underground_line {
	phases A;
	from node951902951901;
	name 951902;
	longitude 103.806449041;
	to node951903951902;
	length 416;
	latitude 674.48628055;
	configuration 982349-LINECONFIG;
	groupid Distribution_Line;
};

object overhead_line {
	phases BN;
	from node839832839828;
	name 839832;
	longitude 310.016341823;
	to node839837839832;
	length 230;
	latitude 580.837352572;
	configuration 985054-LINECONFIG;
	groupid Distribution_Line;
};

object transformer {
	phases AS;
	from nodeT7777840683;
	name T7777_A;
	to nodeS1906-22-097T7777_A;
	configuration 1906-22-051_A-CONFIG;
	groupid Distribution_Trans;
};

object triplex_meter {
	phases BS;
	name nodeS1806-05-1261806-05-216_B;
	longitude 304.312548872;
	nominal_voltage 120;
	latitude 580.972740832;
};

object node {
	phases B;
	name nodeT6918917612;
	longitude 504.635497628;
	nominal_voltage 7200.0;
	latitude 731.536497386;
};

object node {
	phases A;
	name node1806-0115839778;
	longitude 349.364263223;
	nominal_voltage 7200.0;
	latitude 526.99712236;
};

object triplex_node {
	phases CS;
	name S1806-05-086_C;
	parent nodeS1806-05-0011806-05-359_C;
	longitude 333.84002889;
	nominal_voltage 120;
	latitude 558.595787095;
};

object underground_line {
	phases A;
	from node959483959482;
	name 959483;
	longitude 32.9706245765;
	to nodeT16334959483;
	length 65;
	latitude 724.751752928;
	configuration 982349-LINECONFIG;
	groupid Distribution_Line;
};

object fuse {
	phases C;
	from nodeR2914x1841312;
	name R2914x1;
	current_limit 9999.0 A;
	longitude 338.26776675;
	to node841313R2914x1;
	latitude 548.907712885;
};

object fuse {
	phases B;
	from nodeF28653x1978174;
	name F28653x1;
	current_limit 9999.0 A;
	longitude 737.885128941;
	to node978192F28653x1;
	latitude 602.796579257;
};

object transformer {
	phases BS;
	from node839898839896;
	name 1806-04-018_B;
	to nodeS1806-04-0431806-04-018_B;
	configuration 1806-10-002_B-CONFIG;
	groupid Distribution_Trans;
};

object triplex_meter {
	phases BS;
	name nodeS1806-35-048T10509_B;
	longitude 678.139829145;
	nominal_voltage 120;
	latitude 865.494583223;
};

object node {
	phases C;
	name nodeT3917909244;
	longitude 399.011518992;
	nominal_voltage 7200.0;
	latitude 580.107810157;
};

object node {
	phases CN;
	name node839496839493;
	longitude 745.649487823;
	nominal_voltage 7200.0;
	latitude 677.307177887;
};

object triplex_node {
	phases CS;
	name S1806-05-005_C;
	parent nodeS1806-05-003T28501_C;
	longitude 310.313083871;
	nominal_voltage 120;
	latitude 530.17651107;
};

object overhead_line {
	phases C;
	from node841511841510;
	name 841511;
	longitude 250.771254335;
	to node1907-31-007841511;
	length 810;
	latitude 1198.03023548;
	configuration 840428-LINECONFIG;
	groupid Distribution_Line;
};

object triplex_meter {
	phases AS;
	name nodeS1906-22-1861906-22-048_A;
	longitude 28.4097921583;
	nominal_voltage 120;
	latitude 829.705477269;
};

object triplex_node {
	phases AS;
	name S1905-26-043_A;
	parent nodeS1905-26-0431905-25-028_A;
	longitude 149.107541233;
	nominal_voltage 120;
	latitude 221.406203108;
};

object node {
	phases BN;
	name node949217R2919x1;
	longitude 299.956156084;
	nominal_voltage 7200.0;
	latitude 554.987233008;
};

object node {
	phases A;
	name nodeF16133x1979033;
	longitude 592.116066802;
	nominal_voltage 7200.0;
	latitude 600.559315851;
};

object overhead_line {
	phases CN;
	from node840437840435;
	name 840437;
	longitude 241.492287457;
	to node840438840437;
	length 534;
	latitude 378.048879342;
	configuration 840428-LINECONFIG;
	groupid Distribution_Line;
};

object underground_line {
	phases A;
	from node951903951902;
	name 951903;
	longitude 112.272310574;
	to node951904951903;
	length 520;
	latitude 673.610829652;
	configuration 982349-LINECONFIG;
	groupid Distribution_Line;
};

object transformer {
	phases AS;
	from node839733979060;
	name 1806-17-120_A;
	to nodeS1806-17-0041806-17-120_A;
	configuration 1906-22-098_A-CONFIG;
	groupid Distribution_Trans;
};

object overhead_line {
	phases BN;
	from node839837839832;
	name 839837;
	longitude 308.469847343;
	to node916842839837;
	length 145;
	latitude 583.804158392;
	configuration 985054-LINECONFIG;
	groupid Distribution_Line;
};

object triplex_node {
	phases BS;
	name S1806-05-190_B;
	parent nodeS1806-05-190T12084_B;
	longitude 321.517674441;
	nominal_voltage 120;
	latitude 567.76280225;
};

object triplex_node {
	phases CS;
	name S1806-09-002_C;
	parent nodeS1806-09-0021806-04-029_C;
	longitude 329.416167812;
	nominal_voltage 120;
	latitude 616.623378867;
};

object triplex_meter {
	phases AS;
	name nodeS1806-08-0121806-08-023_A;
	longitude 367.653392087;
	nominal_voltage 120;
	latitude 528.197216849;
};

object node {
	phases A;
	name nodeT4172924076;
	longitude 140.332416597;
	nominal_voltage 7200.0;
	latitude 39.4196084789;
};

object triplex_node {
	phases CS;
	name S1806-03-024_C;
	parent nodeS1806-03-0051806-03-015_C;
	longitude 289.997100867;
	nominal_voltage 120;
	latitude 745.884528364;
};

object underground_line {
	phases B;
	from node904506904505;
	name 915132;
	longitude 586.631591534;
	to nodeF5347x1915132;
	length 10;
	latitude 1053.11879382;
	configuration 841826-LINECONFIG;
	groupid Distribution_Line;
};

object underground_line {
	phases C;
	from node841313R2914x1;
	name 841313;
	longitude 338.618518076;
	to node841314841313;
	length 182;
	latitude 555.206095732;
	configuration 970069-LINECONFIG;
	groupid Distribution_Line;
};

object transformer {
	phases BS;
	from node924046924044;
	name T10526_B;
	to nodeS1906-33-007T10526_B;
	configuration 1806-33-057_B-CONFIG;
	groupid Distribution_Trans;
};

object underground_line {
	phases B;
	from node978192F28653x1;
	name 978192;
	longitude 738.905496433;
	to node949317978192;
	length 40;
	latitude 602.893851579;
	configuration 929369-LINECONFIG;
	groupid Distribution_Line;
};

object triplex_meter {
	phases AS;
	name nodeS1806-20-071T12325_A;
	longitude 510.795666912;
	nominal_voltage 120;
	latitude 477.477795632;
};

object node {
	phases CN;
	name node839497839496;
	longitude 744.485631153;
	nominal_voltage 7200.0;
	latitude 681.611478134;
};

object triplex_node {
	phases CS;
	name S1805-01-020_C;
	parent nodeS1805-01-020T29545_C;
	longitude 310.590902167;
	nominal_voltage 120;
	latitude 214.068367888;
};

object overhead_line {
	phases AN;
	from node840954840953;
	name 841013;
	longitude 89.0908366216;
	to node841015841013;
	length 193;
	latitude 210.035261217;
	configuration 966764-LINECONFIG;
	groupid Distribution_Line;
};

object triplex_meter {
	phases CS;
	name nodeS1805-02-0071805-02-021_C;
	longitude 251.003591489;
	nominal_voltage 120;
	latitude 151.834594099;
};

object transformer {
	phases AS;
	from nodeT10637926090;
	name T10637_A;
	to nodeS1806-18-007T10637_A;
	configuration T19018_A-CONFIG;
	groupid Distribution_Trans;
};

object node {
	phases CN;
	name node840317840316;
	longitude 176.475746343;
	nominal_voltage 7200.0;
	latitude 215.847282455;
};

object node {
	phases BN;
	name node985054949217;
	longitude 300.003985811;
	nominal_voltage 7200.0;
	latitude 552.166335671;
};

object node {
	phases A;
	name node979034F16133x1;
	longitude 589.676750767;
	nominal_voltage 7200.0;
	latitude 615.539253435;
};

object underground_line {
	phases C;
	from node840438840437;
	name 840438;
	longitude 262.027183228;
	to node840439840438;
	length 1292;
	latitude 375.544117051;
	configuration 970069-LINECONFIG;
	groupid Distribution_Line;
};

object transformer {
	phases CS;
	from node978169978186;
	name 1806-33-094_C;
	to nodeS1806-32-1401806-33-094_C;
	configuration T7879_C-CONFIG;
	groupid Distribution_Trans;
};

object underground_line {
	phases A;
	from node951904951903;
	name 951904;
	longitude 122.109290924;
	to nodeT16170951904;
	length 620;
	latitude 677.45308637;
	configuration 982349-LINECONFIG;
	groupid Distribution_Line;
};

object overhead_line {
	phases BN;
	from node916842839837;
	name 916842;
	longitude 307.959663598;
	to node839838916842;
	length 137;
	latitude 585.457787865;
	configuration 985054-LINECONFIG;
	groupid Distribution_Line;
};

object triplex_node {
	phases CS;
	name S1906-32-047_C;
	parent nodeS1906-32-0251906-0069_C;
	longitude 217.09606198;
	nominal_voltage 120;
	latitude 569.733179031;
};

object underground_line {
	phases A;
	from node917256917255;
	name 917257;
	longitude 507.457451473;
	to node841601917257;
	length 700;
	latitude 493.802942488;
	configuration 982349-LINECONFIG;
	groupid Distribution_Line;
};

object triplex_meter {
	phases CS;
	name nodeS1906-29-0041906-0307_C;
	longitude 123.307232986;
	nominal_voltage 120;
	latitude 475.054442608;
};

object node {
	phases B;
	name node929367917613;
	longitude 515.652277891;
	nominal_voltage 7200.0;
	latitude 725.432659182;
};

object triplex_node {
	phases AS;
	name S1905-24-058_A;
	parent nodeS1905-24-0141905-24-018_A;
	longitude 70.5939282651;
	nominal_voltage 120;
	latitude 215.759934965;
};

object node {
	phases ABCN;
	name node985281985280;
	longitude 344.134879828;
	nominal_voltage 7200.0;
	latitude 547.302719572;
};

object fuse {
	phases B;
	from nodeF5347x1915132;
	name F5347x1;
	current_limit 9999.0 A;
	longitude 586.631591534;
	to node841819F5347x1;
	latitude 1053.11879382;
};

object transformer {
	phases BS;
	from nodeT18699841957;
	name T18699_B;
	to nodeS1806-21-015T18699_B;
	configuration 1806-33-057_B-CONFIG;
	groupid Distribution_Trans;
};

object overhead_line {
	phases CN;
	from node841314841313;
	name 841314;
	longitude 338.634461318;
	to node841317841314;
	length 287;
	latitude 562.574474122;
	configuration 840428-LINECONFIG;
	groupid Distribution_Line;
};

object underground_line {
	phases B;
	from node949317978192;
	name 949317;
	longitude 737.661923552;
	to node949318949317;
	length 469;
	latitude 613.545170835;
	configuration 929369-LINECONFIG;
	groupid Distribution_Line;
};

object triplex_node {
	phases AS;
	name S1806-17-019_A;
	parent nodeS1806-17-017T10632_A;
	longitude 470.812439355;
	nominal_voltage 120;
	latitude 482.713257663;
};

object triplex_meter {
	phases BS;
	name nodeS1806-23-003T6459_B;
	longitude 583.856361569;
	nominal_voltage 120;
	latitude 925.021626855;
};

object node {
	phases CN;
	name node839499839497;
	longitude 743.130455578;
	nominal_voltage 7200.0;
	latitude 686.621002716;
};

object triplex_node {
	phases AS;
	name S1806-08-016_A;
	parent nodeS1806-08-0161806-08-030_A;
	longitude 423.073226888;
	nominal_voltage 120;
	latitude 599.141192;
};

object overhead_line {
	phases AN;
	from node841015841013;
	name 841015;
	longitude 89.0748933796;
	to node841016841015;
	length 453;
	latitude 199.019170753;
	configuration 966764-LINECONFIG;
	groupid Distribution_Line;
};

object underground_line {
	phases B;
	from node928749928748;
	name 928750;
	longitude 729.467097134;
	to node928752928750;
	length 1608;
	latitude 948.575365784;
	configuration 929369-LINECONFIG;
	groupid Distribution_Line;
};

object transformer {
	phases AS;
	from node839644839640;
	name T18080_A;
	to nodeS1806-20-024T18080_A;
	configuration 1906-22-098_A-CONFIG;
	groupid Distribution_Trans;
};

object triplex_meter {
	phases AS;
	name nodeS1906-22-0741906-22-047_A;
	longitude 41.8178840288;
	nominal_voltage 120;
	latitude 823.971473561;
};

object node {
	phases CN;
	name node840319840317;
	longitude 179.839770417;
	nominal_voltage 7200.0;
	latitude 215.871600535;
};

object node {
	phases BN;
	name node985055985054;
	longitude 300.019929053;
	nominal_voltage 7200.0;
	latitude 550.901795485;
};

object node {
	phases A;
	name node948315979034;
	longitude 589.804296704;
	nominal_voltage 7200.0;
	latitude 636.817573866;
};

object underground_line {
	phases C;
	from node840439840438;
	name 840439;
	longitude 261.979353502;
	to node910214840439;
	length 61;
	latitude 374.060714141;
	configuration 970069-LINECONFIG;
	groupid Distribution_Line;
};

object triplex_node {
	phases BS;
	name S1806-04-051_B;
	parent nodeS1806-04-028T10519_B;
	longitude 287.41006731;
	nominal_voltage 120;
	latitude 630.162094976;
};

object overhead_line {
	phases BN;
	from node839838916842;
	name 839838;
	longitude 306.875523138;
	to node916845839838;
	length 180;
	latitude 589.518907308;
	configuration 985054-LINECONFIG;
	groupid Distribution_Line;
};

object underground_line {
	phases A;
	from node841601917257;
	name 841601;
	longitude 507.345848778;
	to node841602841601;
	length 746;
	latitude 483.443440198;
	configuration 982349-LINECONFIG;
	groupid Distribution_Line;
};

object triplex_meter {
	phases CS;
	name nodeS1905-36-0211905-36-007_C;
	longitude 195.205980203;
	nominal_voltage 120;
	latitude 221.880749563;
};

object node {
	phases B;
	name node929368929367;
	longitude 517.166885886;
	nominal_voltage 7200.0;
	latitude 725.043569894;
};

object transformer {
	phases AS;
	from node840985906839;
	name 1905-25-024_A;
	to nodeS1905-26-0281905-25-024_A;
	configuration 1906-22-049_A-CONFIG;
	groupid Distribution_Trans;
};

object node {
	phases A;
	name nodeT12131923579;
	longitude 131.978157758;
	nominal_voltage 7200.0;
	latitude 47.1527580756;
};

object node {
	phases ABCN;
	name node985282985281;
	longitude 344.07110686;
	nominal_voltage 7200.0;
	latitude 547.035220687;
};

object underground_line {
	phases B;
	from node841819F5347x1;
	name 841819;
	longitude 586.806967197;
	to node915133841819;
	length 10;
	latitude 1053.11879382;
	configuration 841826-LINECONFIG;
	groupid Distribution_Line;
};

object transformer {
	phases BS;
	from node923606921620;
	name T12908_B;
	to nodeS1806-27-012T12908_B;
	configuration T10512_B-CONFIG;
	groupid Distribution_Trans;
};

object overhead_line {
	phases CN;
	from node841317841314;
	name 841317;
	longitude 338.586631592;
	to node841318841317;
	length 264;
	latitude 569.091719694;
	configuration 840428-LINECONFIG;
	groupid Distribution_Line;
};

object triplex_node {
	phases CS;
	name S1806-09-011_C;
	parent nodeS1806-09-0111806-0220_C;
	longitude 387.949105411;
	nominal_voltage 120;
	latitude 618.934431538;
};

object underground_line {
	phases B;
	from node949318949317;
	name 949318;
	longitude 737.677866794;
	to nodeT14104949318;
	length 519;
	latitude 626.190572691;
	configuration 929369-LINECONFIG;
	groupid Distribution_Line;
};

object triplex_meter {
	phases CS;
	name nodeS1806-02-002T15662_C;
	longitude 281.186667078;
	nominal_voltage 120;
	latitude 925.023037643;
};

object triplex_node {
	phases BS;
	name S1806-17-032_B;
	parent nodeS1806-17-032T6844_B;
	longitude 482.282119587;
	nominal_voltage 120;
	latitude 548.252173818;
};

object node {
	phases CN;
	name node839502839499;
	longitude 742.253577265;
	nominal_voltage 7200.0;
	latitude 688.906902282;
};

object overhead_line {
	phases AN;
	from node841016841015;
	name 841016;
	longitude 89.0748933796;
	to node841017841016;
	length 207;
	latitude 193.985328091;
	configuration 966764-LINECONFIG;
	groupid Distribution_Line;
};

object transformer {
	phases AS;
	from nodeT2682910228;
	name T2682_A;
	to nodeS1806-16-011T2682_A;
	configuration 1906-22-098_A-CONFIG;
	groupid Distribution_Trans;
};

object underground_line {
	phases B;
	from node928752928750;
	name 928752;
	longitude 732.289050979;
	to node6159x1-A928752;
	length 220;
	latitude 951.688080088;
	configuration 929369-LINECONFIG;
	groupid Distribution_Line;
};

object triplex_meter {
	phases BS;
	name nodeS1806-04-046T10520_B;
	longitude 307.041143418;
	nominal_voltage 120;
	latitude 627.755769929;
};

object node {
	phases CN;
	name node840324840319;
	longitude 190.904380406;
	nominal_voltage 7200.0;
	latitude 215.895918615;
};

object node {
	phases BN;
	name node985056985055;
	longitude 300.370680378;
	nominal_voltage 7200.0;
	latitude 546.937948365;
};

object node {
	phases A;
	name node839677948315;
	longitude 584.240105225;
	nominal_voltage 7200.0;
	latitude 645.645037085;
};

object underground_line {
	phases C;
	from node910214840439;
	name 910214;
	longitude 261.963410259;
	to node1806-0076910214;
	length 23;
	latitude 373.50139829;
	configuration 970069-LINECONFIG;
	groupid Distribution_Line;
};

object triplex_node {
	phases AS;
	name S1906-30-026_A;
	parent nodeS1906-30-0261906-19-006_A;
	longitude 90.7609920611;
	nominal_voltage 120;
	latitude 354.124417837;
};

object overhead_line {
	phases BN;
	from node916845839838;
	name 916845;
	longitude 305.631950257;
	to node839849916845;
	length 209;
	latitude 594.212296843;
	configuration 985054-LINECONFIG;
	groupid Distribution_Line;
};

object underground_line {
	phases A;
	from node841602841601;
	name 841602;
	longitude 507.345848778;
	to node926091841602;
	length 29;
	latitude 482.738215863;
	configuration 982349-LINECONFIG;
	groupid Distribution_Line;
};

object triplex_meter {
	phases BS;
	name nodeS1806-28-0141806-29-098_B;
	longitude 604.952692431;
	nominal_voltage 120;
	latitude 594.99348147;
};

object transformer {
	phases AS;
	from node976894840748;
	name 1906-21-168_A;
	to nodeS1906-22-1971906-21-168_A;
	configuration 1905-23-004_A-CONFIG;
	groupid Distribution_Trans;
};

object node {
	phases B;
	name nodeT10997929368;
	longitude 517.166885886;
	nominal_voltage 7200.0;
	latitude 725.043569894;
};

object node {
	phases ABC;
	name nodeF28128x1985282;
	longitude 344.07110686;
	nominal_voltage 7200.0;
	latitude 547.035220687;
};

object underground_line {
	phases B;
	from node915133841819;
	name 915133;
	longitude 604.854717207;
	to nodeT5349915133;
	length 1419;
	latitude 1046.86904714;
	configuration 841826-LINECONFIG;
	groupid Distribution_Line;
};

object transformer {
	phases CS;
	from node841156841155;
	name 1806-05-073_C;
	to nodeS1806-05-0321806-05-073_C;
	configuration 1806-03-036_C-CONFIG;
	groupid Distribution_Trans;
};

object underground_line {
	phases A;
	from node959483959482;
	name 959488;
	longitude 26.0990872494;
	to node959489959488;
	length 510;
	latitude 725.82174847;
	configuration 982349-LINECONFIG;
	groupid Distribution_Line;
};

object triplex_node {
	phases CS;
	name S1906-32-043_C;
	parent nodeS1906-32-0401906-0072_C;
	longitude 201.674503173;
	nominal_voltage 120;
	latitude 599.017399286;
};

object underground_line {
	phases C;
	from node841318841317;
	name 841318;
	longitude 338.379369445;
	to nodeFFRN1-F210x1841318;
	length 20;
	latitude 569.456490901;
	configuration 970069-LINECONFIG;
	groupid Distribution_Line;
};

object triplex_node {
	phases CS;
	name S1806-03-021_C;
	parent nodeS1806-03-0211806-03-027_C;
	longitude 349.443542743;
	nominal_voltage 120;
	latitude 862.561214947;
};

object triplex_meter {
	phases BS;
	name nodeS1806-34-007T4048_B;
	longitude 665.703182133;
	nominal_voltage 120;
	latitude 825.809574701;
};

object triplex_node {
	phases CS;
	name S1906-20-084_C;
	parent nodeS1906-20-084T28145_C;
	longitude 65.1005809412;
	nominal_voltage 120;
	latitude 533.1542408;
};

object node {
	phases CN;
	name node839503839502;
	longitude 740.946231416;
	nominal_voltage 7200.0;
	latitude 689.830989341;
};

object overhead_line {
	phases AN;
	from node841017841016;
	name 841017;
	longitude 89.0748933796;
	to node926510841017;
	length 164;
	latitude 189.997162891;
	configuration 966764-LINECONFIG;
	groupid Distribution_Line;
};

object transformer {
	phases CS;
	from nodeT4231917467;
	name T4231_C;
	to nodeS1806-06-018T4231_C;
	configuration 1805-0538_C-CONFIG;
	groupid Distribution_Trans;
};

object triplex_node {
	phases CS;
	name S1906-32-062_C;
	parent nodeS1906-32-026T10039_C;
	longitude 188.811964943;
	nominal_voltage 120;
...